!Put Keywords Here, check Charge and Multiplicity.
#

 Molecule Name

0  1
C           0.31450         1.73800        -1.02750
H           0.31730         1.12320        -1.95310
H           0.87730         2.67990        -1.20490
C          -1.09010         2.12930        -0.68240
C          -1.79080         1.87520         0.48090
H          -1.45860         1.33070         1.35550
N          -1.87470         2.87080        -1.48980
N          -3.01000         3.08370        -0.84040
N          -2.97860         2.49240         0.34370
C          -4.04140         2.59670         1.34040
H          -3.60050         3.05090         2.25410
H          -4.83830         3.28240         0.97770
C          -4.68350         1.25200         1.72300
H          -3.92260         0.52350         2.07700
H          -5.35100         1.48160         2.58310
C          -5.58620         0.63430         0.63830
O          -6.35500        -0.37990         1.20630
H          -6.29070         1.41770         0.27660
C          -4.83810         0.06390        -0.59860
H          -4.27600         0.83580        -1.15390
H          -4.12050        -0.70950        -0.24660
O          -5.75110        -0.54030        -1.46130
C          -6.77940        -1.26460        -0.95680
C          -7.07830        -1.19300         0.40230
C          -8.13400        -1.99450         0.80190
H          -8.52810        -2.08600         1.80520
S          -8.70550        -2.77520        -0.58260
C          -7.60870        -2.10560        -1.67980
H          -7.55640        -2.30330        -2.74170
O           0.83750         1.11510        -0.11140
H           1.22850         0.64940         0.57340

