!Put Keywords Here, check Charge and Multiplicity.
#

 Coordinates from ORCA-job orca

0  1
C          -1.43751         0.56514         2.06943
C          -0.36220         1.35513         1.66240
C          -0.37842         0.22289        -0.52821
C          -1.45727        -0.55336        -0.10141
C          -1.99236        -0.39464         1.19498
H          -1.85713         0.69491         3.07917
H           0.08354         2.11122         2.32552
H           0.03606         0.11523        -1.54129
H          -1.89737        -1.29410        -0.78778
H          -2.84314        -1.01238         1.52023
N           1.26482         1.97777         0.01680
N           1.85515         1.95828        -1.12721
C           2.91811         1.15537        -1.44244
C           3.49009         0.21370        -0.52692
C           3.48102         1.27844        -2.75113
C           4.56602        -0.57985        -0.92860
H           3.07436         0.13865         0.48858
C           4.55334         0.47185        -3.13261
H           3.03920         2.01583        -3.43754
C           5.10314        -0.46312        -2.22860
H           5.00214        -1.30109        -0.21932
H           4.97459         0.56896        -4.14534
H           5.95164        -1.09410        -2.53377
C           0.19867         1.18961         0.35753

